---- qbsp / TyrUtils v0.15 ----
Input file: maps/meh.map
Output file: bsp/MEH/MEH.bsp

---- LoadMapFile ----
*** WARNING 06: No info_player_deathmatch entities in level
           42 faces
            7 brushes
            2 entities
            5 unique texnames
            9 texinfo

Opened WAD: C:\Q1\Quake1\quake.wad
Processing hull 0...
---- Brush_LoadEntity ----
            7 brushes
---- CSGFaces ----
           42 brushfaces
           45 csgfaces
           42 mergedfaces
---- SolidBSP ----
           76 split nodes
           19 solid leafs
           54 empty leafs
            4 water leafs
           96 leaffaces
           95 nodefaces
---- Portalize ----
           58 vis leafs
           58 vis clusters
          145 vis portals
---- FillOutside ----
*** WARNING 10: Reached occupant at (144 48 24), no filling performed.
Leak file written to bsp/MEH/MEH.pts
---- MakeFaceEdges ----
---- GrowRegions ----
Processing hull 1...
*** WARNING 19: No entities in empty space -- no filling performed (hull 1)
Processing hull 2...
*** WARNING 19: No entities in empty space -- no filling performed (hull 2)
---- WriteBSPFile ----
           33 planes              660
           88 vertexes           1056
           76 nodes              1824
            9 texinfo             360
           95 faces              1900
           44 clipnodes           352
           59 leafs              1652
           96 marksurfaces        192
          380 surfedges          1520
          219 edges               876
            9 textures          54800
              lightdata             0
              visdata               0
              entdata             152

0.452 seconds elapsed
Peak memory usage: 342143 (334.1k)
