---- qbsp / TyrUtils v0.15 ----
Input file: .\maps\arena.map
Output file: .\bsp\arena.bsp

---- LoadMapFile ----
*** WARNING 06: No info_player_deathmatch entities in level
           90 faces
           15 brushes
           54 entities
            1 unique texnames
           17 texinfo

Opened WAD: D:\krm\Q1\Quake1\quake.wad
Processing hull 0...
---- Brush_LoadEntity ----
           15 brushes
---- CSGFaces ----
           90 brushfaces
          131 csgfaces
          122 mergedfaces
---- SolidBSP ----
          164 split nodes
           55 solid leafs
          110 empty leafs
            0 water leafs
          277 leaffaces
          248 nodefaces
---- Portalize ----
          110 vis leafs
          110 vis clusters
          277 vis portals
---- FillOutside ----
*** WARNING 10: Reached occupant at (-16 64 136), no filling performed.
Leak file written to .\bsp\arena.pts
---- MakeFaceEdges ----
---- GrowRegions ----
Processing hull 1...
*** WARNING 19: No entities in empty space -- no filling performed (hull 1)
Processing hull 2...
*** WARNING 19: No entities in empty space -- no filling performed (hull 2)
---- WriteBSPFile ----
           61 planes             1220
          290 vertexes           3480
          164 nodes              3936
           17 texinfo             680
          248 faces              4960
          178 clipnodes          1424
          111 leafs              3108
          277 marksurfaces        554
          992 surfedges          3968
          613 edges              2452
            1 textures           5488
              lightdata             0
              visdata               0
              entdata            3875

0.265 seconds elapsed
Peak memory usage: 927364 (0.9M)
